  
       XFOIL         Version 6.99
  
 Calculated polar for: panel                                           
  
 1 1 Reynolds number fixed          Mach number fixed         
  
 xtrf =   1.000 (top)        1.000 (bottom)  
 Mach =   0.313     Re =     8.000 e 6     Ncrit =   9.000
  
   alpha    CL        CD       CDp       CM     Top_Xtr  Bot_Xtr
  ------ -------- --------- --------- -------- -------- --------
  11.500   2.3221   0.06772   0.06386  -0.0716   0.0103   0.6258
