  
       XFOIL         Version 6.99
  
 Calculated polar for: panel                                           
  
 1 1 Reynolds number fixed          Mach number fixed         
  
 xtrf =   1.000 (top)        1.000 (bottom)  
 Mach =   0.313     Re =     8.000 e 6     Ncrit =   9.000
  
   alpha    CL        CD       CDp       CM     Top_Xtr  Bot_Xtr
  ------ -------- --------- --------- -------- -------- --------
   0.000   1.1858   0.04264   0.03760  -0.1527   0.0714   0.2965
   0.500   1.2408   0.04295   0.03792  -0.1504   0.0706   0.3074
   1.000   1.2959   0.04327   0.03826  -0.1480   0.0694   0.3215
   1.500   1.3511   0.04359   0.03860  -0.1455   0.0679   0.3378
   2.000   1.4064   0.04390   0.03896  -0.1430   0.0668   0.3546
   2.500   1.4620   0.04422   0.03931  -0.1404   0.0665   0.3723
